/*--------------------------------*- C++ -*----------------------------------*\
| =========                 |                                                |
| \\      /  F ield         | cfMesh: A library for mesh generation          | 
|  \\    /   O peration     |                                                |
|   \\  /    A nd           | Author: Franjo Juretic                         | 
|    \\/     M anipulation  | E-mail: franjo.juretic@c-fields.com            |
\*---------------------------------------------------------------------------*/

FoamFile
{
    version   2.0;
    format    ascii;
    class     dictionary;
    location  "system";
    object    meshDict;
}

// * * * * * * * * * * * * * * * * * * * * * * * * * * * * * * * * * * * * * //

surfaceFile "fluidDomain.fms";

maxCellSize 10.0;

boundaryCellSize 2.0;

minCellSize 4.0;
     
// ************************************************************************* //
