/*--------------------------------*- C++ -*----------------------------------*\
| =========                 |                                                 |
| \\      /  F ield         | foam-extend: Open Source CFD                    |
|  \\    /   O peration     | Version:     4.1                                |
|   \\  /    A nd           | Web:         http://www.foam-extend.org         |
|    \\/     M anipulation  |                                                 |
\*---------------------------------------------------------------------------*/
FoamFile
{
    version     2.0;
    format      ascii;
    class       dictionary;
    object      transportProperties;
}
// * * * * * * * * * * * * * * * * * * * * * * * * * * * * * * * * * * * * * //
transportModel  NF4Foam;

nu		nu [0 2 -1 0 0 0 0]	1.0e-23;//It is not read.
Pr		Pr [ 0 0 0 0 0 0 0 ]	1.0e-23;//It is not read.
Prt		Prt [ 0 0 0 0 0 0 0 ]	0.85;
Sct		Sct [ 0 0 0 0 0 0 0 ]	0.85;
TRef            TRef [0 0 0 1 0 0 0]	300.0;
mu0		mu0 [1 1 -2 0 0 -2 0]	1.256e-6;
// ************************************************************************* //
