/*--------------------------------*- C++ -*----------------------------------*\
| =========                 |                                                 |
| \\      /  F ield         | foam-extend: Open Source CFD                    |
|  \\    /   O peration     | Version:     4.1                                |
|   \\  /    A nd           | Web:         http://www.foam-extend.org         |
|    \\/     M anipulation  |                                                 |
\*---------------------------------------------------------------------------*/
FoamFile
{
    version     2.0;
    format      ascii;
    class       dictionary;
    object      blockMeshDict;
}
// * * * * * * * * * * * * * * * * * * * * * * * * * * * * * * * * * * * * * //

convertToMeters 0.001;

vertices
(
    (0 0 -2.5)
    (200 0 -2.5)
    (200 18 -2.5)
    (0 18 -2.5)
    (0 0 2.5)
    (200 0 2.5)
    (200 18 2.5)
    (0 18 2.5)
);

edges
(
);

blocks
(
    hex (0 1 2 3 4 5 6 7) (100 36 20) simpleGrading (1 1 1)
);

boundary
(
    top
    {
        type wall;
        faces
        (
            (2 3 7 6)
        );
    }

    bottom
    {
        type wall;
        faces
        (
            (0 1 5 4)
        );
    }
    frontAndBack
    {
        type wall;
        faces
        (
            (4 5 6 7)
            (3 2 1 0)
        );
    }

    outlet
    {
        type wall;
        faces
        (
            (6 5 1 2)
        );
    }

    inlet
    {
        type wall;
        faces
        (
            (4 7 3 0)
        );
    }
);

mergePatchPairs
(
);
// ************************************************************************* //
