/*--------------------------------*- C++ -*----------------------------------*\
  =========                 |
  \\      /  F ield         | OpenFOAM: The Open Source CFD Toolbox
   \\    /   O peration     | Website:  https://openfoam.org
    \\  /    A nd           | Version:  6
     \\/     M anipulation  |
\*---------------------------------------------------------------------------*/
FoamFile
{
    version     2.0;
    format      ascii;
    class       dictionary;
    location    "constant";
    object      nanoFluidProperties;
}
//------------------------------- nanoFluid4Foam project -------------------------------//
//Author
    //Ehsan Golab, SUT. All rights reserved.
    //Ehsan1996Golab@gmail.com

//--------------------------------------------------------------------------------------//


//************************************************ baseFluid ************************************************//
baseFluid			(blood);
moleFraction			(1.0);
#include "../../../materialsDict.H";
transportModel			Newtonian;


//************************************************ particle ************************************************//
particle			( (Cu MNP) );
particleDict
{
    Cu
    {
        Components		(Cu);
        moleFraction		(1.0);
    }
}


//************************************************ nanoFluid ************************************************//
nanoFluidModel			(mono Heterogeneous);//Homogenous-Heterogeneous
thermalConductivityModel	Maxwell;
MaxwellCoeffs{}

dynamicViscosityModel		Brinkman;
BrinkmanCoeffs{}

//***************** Heterogeneous *****************//
brownianDiffusivityModel	Brownian;
BrownianCoeffs
{
    dnp				(10e-9);
}

thermophoresisDiffusivityModel		McNabMeisen;
McNabMeisenCoeffs{}


//############################################### End #######################################################//
