/*--------------------------------*- C++ -*----------------------------------*\
| =========                 |                                                 |
| \\      /  F ield         | foam-extend: Open Source CFD                    |
|  \\    /   O peration     | Version:     4.1                                |
|   \\  /    A nd           | Web:         http://www.foam-extend.org         |
|    \\/     M anipulation  |                                                 |
\*---------------------------------------------------------------------------*/
FoamFile
{
    version     2.0;
    format      ascii;
    class       volScalarField;
    location    "0";
    object      alpha_AL2O3;
}
// * * * * * * * * * * * * * * * * * * * * * * * * * * * * * * * * * * * * * //

dimensions		[0 0 0 0 0 0 0];

internalField		uniform 0.03;

boundaryField
{
    right
    {
	type		BuongiornoBC4NF;
        name            AL2O3;
        massFlux        0.0;
        ho              0.0;
        alphao          0.0;
    }

    left
    {
	type		BuongiornoBC4NF;
        name            AL2O3;
        massFlux        0.0;
        ho              0.0;
        alphao          0.0;
    }

    ".*"
    {
	type		zeroGradient;
    }
}
// ************************************************************************* //
