/*--------------------------------*- C++ -*----------------------------------*\
| =========                 |                                                 |
| \\      /  F ield         | foam-extend: Open Source CFD                    |
|  \\    /   O peration     | Version:     4.1                                |
|   \\  /    A nd           | Web:         http://www.foam-extend.org         |
|    \\/     M anipulation  |                                                 |
\*---------------------------------------------------------------------------*/
FoamFile
{
    version     2.0;
    format      ascii;
    class       dictionary;
    object      fvSchemes;
}
// * * * * * * * * * * * * * * * * * * * * * * * * * * * * * * * * * * * * * //

ddtSchemes
{
    default				Euler;
}

gradSchemes
{
    default				Gauss linear;
}

divSchemes
{
    default				none;
    div(phi,U)				Gauss upwind;//Gauss GammaV 0.2;
    div(phi,T)				Gauss upwind;
    div(phi,k)				Gauss upwind;
    div(phi,epsilon)			Gauss upwind;
    div(phi,R)				Gauss upwind;
    div(R)				Gauss linear;
    div((nuEff*dev(T(grad(U)))))	Gauss linear;
}

laplacianSchemes
{
    default				none;
    laplacian((1|A(U)),p)		Gauss linear corrected;
    laplacian(nuEff,U)			Gauss linear corrected;
    laplacian(kappaEff,T)		Gauss linear corrected;
    laplacian(DkEff,k)			Gauss linear corrected;
    laplacian(DepsilonEff,epsilon)	Gauss linear corrected;
    laplacian(DREff,R)			Gauss linear corrected;
}

interpolationSchemes
{
    default				linear;
    interpolate(HbyA)			linear;
    laplacian(DT,T)			Gauss linear corrected;
}

snGradSchemes
{
    default				corrected;
}


// ************************************************************************* //
